[root]
type=Root
children=system
eventq_index=0
full_system=true
sim_quantum=0
time_sync_enable=false
time_sync_period=100000000000
time_sync_spin_threshold=100000000

[system]
type=System
children=bridge clk_domain cpu cpu_clk_domain cpu_voltage_domain dvfs_handler iobridge iobus l2_wrappers l3 lint mem_ctrls membus mmcs plic tol2bus_list tol3bus uartlite voltage_domain workload
arch_db=Null
auto_unlink_shared_backstore=false
cache_line_size=64
enable_difftest=false
enable_h_gcpt=false
enable_mem_dedup=false
enable_riscv_vector=true
enable_sv48=false
eventq_index=0
exit_on_work_items=false
gcpt_file=/gem5/workloads/500.perlbench_r_10G/113/_113_0.067416_memory_.gz
gcpt_restorer_file=
gcpt_restorer_size_limit=1792
init_param=0
m5ops_base=0
map_to_raw_cpt=false
mem_mode=timing
mem_ranges=2147483648:10737418240
memories=system.mem_ctrls
mmap_using_noreserve=false
multi_thread=false
num_cpus=1
num_work_ids=16
readfile=
redirect_paths=
restore_from_gcpt=true
shadow_rom_ranges=
shared_backstore=
symbolfile=
thermal_components=
thermal_model=Null
work_begin_ckpt_count=0
work_begin_cpu_id_exit=-1
work_begin_exit_count=0
work_cpus_ckpt_count=0
work_end_ckpt_count=0
work_end_exit_count=0
work_item_id=-1
workload=system.workload
xiangshan_system=true
system_port=system.membus.cpu_side_ports[0]

[system.bridge]
type=Bridge
children=power_state
clk_domain=system.clk_domain
delay=50000
eventq_index=0
power_model=
power_state=system.bridge.power_state
ranges=1080033280:1080033293 939524096:939573248 1073750016:1073750144 1006632960:1073741824
req_size=16
resp_size=16
cpu_side_port=system.membus.mem_side_ports[0]
mem_side_port=system.iobus.cpu_side_ports[0]

[system.bridge.power_state]
type=PowerState
clk_gate_bins=20
clk_gate_max=1000000000000
clk_gate_min=1000
default_state=UNDEFINED
eventq_index=0
leaders=
possible_states=

[system.clk_domain]
type=SrcClockDomain
clock=333
domain_id=-1
eventq_index=0
init_perf_level=0
voltage_domain=system.voltage_domain

[system.cpu]
type=BaseO3CPU
children=branchPred dcache decoder dtb_walker_cache icache interrupts isa itb_walker_cache mmu power_state scheduler tracer
BankConflictCheck=true
CROB_instPerGroup=2
ConstSquashCycle=1
EnableLdMissReplay=true
EnablePipeNukeCheck=true
LFSTEntrySize=4
LFSTSize=32
LQEntries=72
LSQCheckLoads=true
LSQDepCheckShift=0
LdPipeStages=4
LoadCompletionWidth=8
RARDequeuePerCycle=4
RARQEntries=72
RAWDequeuePerCycle=4
RAWQEntries=32
RobCompressPolicy=none
SQEntries=56
SSITSize=1024
SbufferEntries=16
SbufferEvictThreshold=7
StPipeStages=5
StoreCompletionWidth=4
StoreWbStage=4
activity=0
arch_db=Null
backComSize=10
branchPred=system.cpu.branchPred
cacheLoadPorts=200
cacheStorePorts=200
checker=Null
clk_domain=system.cpu_clk_domain
commitToDecodeDelay=1
commitToFetchDelay=2
commitToIEWDelay=1
commitToRenameDelay=1
commitWidth=8
cpu_id=0
decodeToFetchDelay=1
decodeToRenameDelay=1
decodeWidth=8
decoder=system.cpu.decoder
difftest_ref_so=
dispWidth=8 8 8
do_checkpoint_insts=true
do_statistics_insts=true
dump_commit=false
dump_start=0
enableConstantFolding=false
enableDispatchStage=false
enableMovImmElimination=false
enable_difftest=false
enable_loadFusion=false
enable_mem_dedup=false
enable_riscv_h=true
enable_riscv_vector=true
enable_skip_csr=true
enable_storeSet_train=false
enable_sv48=false
eventq_index=0
executeToWriteBackDelay=1
fetchBufferSize=66
fetchQueueSize=64
fetchToDecodeDelay=4
fetchTrapLatency=1
fetchWidth=32
forwardComSize=10
function_trace=false
function_trace_start=0
iewToCommitDelay=1
iewToDecodeDelay=1
iewToFetchDelay=2
iewToRenameDelay=1
interrupts=system.cpu.interrupts
isa=system.cpu.isa
max_insts_all_threads=0
max_insts_any_thread=40000000
mmu=system.cpu.mmu
needsTSO=false
nemuSDCptBin=
nemuSDimg=
numDQEntries=8 8 8
numPhysCCRegs=0
numPhysFloatRegs=256
numPhysIntRegs=224
numPhysRMiscRegs=40
numPhysVecPredRegs=32
numPhysVecRegs=192
numROBEntries=352
numRobs=1
numThreads=1
phyregReleaseWidth=8
phyregReleaseWidthFp=1
phyregReleaseWidthInt=1
phyregReleaseWidthOther=1
phyregReleaseWidthVec=1
power_gating_on_idle=false
power_model=
power_state=system.cpu.power_state
progress_interval=0
pwr_gating_latency=300
renameToDecodeDelay=1
renameToFetchDelay=1
renameToIEWDelay=1
renameToROBDelay=1
renameWidth=8
resolveQueueSize=16
robWalkPolicy=Replay
sbufferBankWriteAccurately=false
scheduler=system.cpu.scheduler
simpoint_start_insts=
smtCommitPolicy=RoundRobin
smtFetchPolicy=RoundRobin
smtIQPolicy=Partitioned
smtIQThreshold=100
smtLSQPolicy=Partitioned
smtLSQThreshold=100
smtNumFetchingThreads=1
smtROBPolicy=Partitioned
smtROBThreshold=100
socket_id=0
squashWidth=8
storeBufferInactiveThreshold=800
store_prefetch_train=false
store_set_clear_period=250000
store_set_clear_thres=1048576
switched_out=false
syscallRetryLatency=10000
system=system
tracer=system.cpu.tracer
trapLatency=13
warmupInstCount=20000000
wbWidth=20
workload=
dcache_port=system.cpu.dcache.cpu_side
icache_port=system.cpu.icache.cpu_side

[system.cpu.branchPred]
type=DecoupledBPUWithBTB
children=abtb indirectBranchPred ittage mbtb mgsc microtage ras tage ubtb
BTBEntries=4096
BTBTagSize=16
RASSize=16
abtb=system.cpu.branchPred.abtb
bpDBSwitches=
enableJumpAheadPredictor=false
enableLoopBuffer=false
enableLoopPredictor=false
eventq_index=0
fsq_size=256
ftq_size=256
indirectBranchPred=system.cpu.branchPred.indirectBranchPred
instShiftAmt=2
isDumpMisspredPC=true
ittage=system.cpu.branchPred.ittage
maxHistLen=970
mbtb=system.cpu.branchPred.mbtb
mgsc=system.cpu.branchPred.mgsc
microtage=system.cpu.branchPred.microtage
numStages=4
numThreads=1
predictWidth=64
ras=system.cpu.branchPred.ras
resolveBlockThreshold=8
tage=system.cpu.branchPred.tage
ubtb=system.cpu.branchPred.ubtb

[system.cpu.branchPred.abtb]
type=AheadBTB
aheadPipelinedStages=1
blockSize=64
enabled=true
entryHalfAligned=false
eventq_index=0
instShiftAmt=1
numDelay=0
numEntries=1024
numThreads=1
numWays=8
predictWidth=64
resolvedUpdate=false
tagBits=38
usingS3Pred=true

[system.cpu.branchPred.indirectBranchPred]
type=ITTAGE
TTagBitSizes=9 9 13 13 13 13 13 13 13 13 15 15 15 15 15
TTagPcShifts=2 2 2 2 2 2 2 2 2 2 2 2 2 2 2
eventq_index=0
histLengths=4 10 16 27 44 60 96 109 219 449 487
indirectPathLength=3
numPredictors=11
numThreads=1
simpleBTBSize=512
tableSizes=256 256 256 256 256 256 256 256 256 256 256 256 256 256 256

[system.cpu.branchPred.ittage]
type=BTBITTAGE
TTagBitSizes=9 9 9 9 9
TTagPcShifts=1 1 1 1 1
blockSize=32
enabled=true
eventq_index=0
histLengths=4 8 13 16 32
maxHistLen=970
needMoreHistories=true
numDelay=2
numPredictors=5
numTablesToAlloc=1
predictWidth=64
resolvedUpdate=true
tableSizes=256 256 512 512 512

[system.cpu.branchPred.mbtb]
type=MBTB
blockSize=32
enabled=true
eventq_index=0
instShiftAmt=1
numDelay=2
numEntries=8192
numThreads=1
numWays=4
predictWidth=64
resolvedUpdate=true
tagBits=20
victimCacheSize=16

[system.cpu.branchPred.mgsc]
type=BTBMGSC
biasTableIdxWidth=11
biasTableNum=1
blockSize=64
bwHistLen=4 8
bwTableIdxWidth=11
bwTableNum=2
enabled=false
eventq_index=0
extraWeightsWidth=6
gHistLen=8 16
gTableIdxWidth=11
gTableNum=2
iHistLen=8
iTableIdxWidth=12
iTableNum=1
lHistLen=4 8
lTableIdxWidth=11
lTableNum=2
needMoreHistories=true
numCtrsPerLine=8
numDelay=2
numEntriesFirstLocalHistories=32
pHistLen=8 16
pTableIdxWidth=11
pTableNum=2
pUpdateThresholdWidth=8
predictWidth=64
resolvedUpdate=false
scCountersWidth=6
thresholdTablelogSize=6
updateThresholdWidth=12
weightTableIdxWidth=5

[system.cpu.branchPred.microtage]
type=BTBTAGE
TTagBitSizes=16
TTagPcShifts=1
baseTableSize=256
blockSize=32
enableBankConflict=true
enableSC=false
enabled=false
eventq_index=0
histLengths=16
maxBranchPositions=32
maxHistLen=970
needMoreHistories=true
numBanks=4
numDelay=0
numPredictors=1
numTablesToAlloc=1
numWays=2
predictWidth=64
resolvedUpdate=false
tableSizes=512
updateOnRead=true
useAltOnNaSize=128
useAltOnNaWidth=7

[system.cpu.branchPred.ras]
type=BTBRAS
blockSize=64
ctrWidth=8
enabled=false
eventq_index=0
numDelay=2
numEntries=32
numInflightEntries=384
predictWidth=64
resolvedUpdate=false

[system.cpu.branchPred.tage]
type=BTBTAGE
TTagBitSizes=13 13 13 13 13 13 13 13
TTagPcShifts=1 1 1 1 1 1 1 1
baseTableSize=256
blockSize=32
enableBankConflict=true
enableSC=true
enabled=true
eventq_index=0
histLengths=4 9 17 29 56 109 211 397
maxBranchPositions=32
maxHistLen=970
needMoreHistories=true
numBanks=4
numDelay=2
numPredictors=8
numTablesToAlloc=1
numWays=2
predictWidth=64
resolvedUpdate=true
tableSizes=2048 2048 2048 2048 2048 2048 2048 2048
updateOnRead=true
useAltOnNaSize=128
useAltOnNaWidth=7

[system.cpu.branchPred.ubtb]
type=UBTB
aheadPipelinedStages=0
blockSize=64
enabled=true
eventq_index=0
numDelay=0
numEntries=32
predictWidth=64
resolvedUpdate=false
tagBits=38
usingS3Pred=true

[system.cpu.dcache]
type=Cache
children=power_state replacement_policy tags way_indexing_policy way_replacement_policy wpu
addr_ranges=0:18446744073709551615
arch_db=Null
assoc=4
cache_level=1
clk_domain=system.cpu_clk_domain
clusivity=mostly_incl
compressor=Null
data_latency=1
demand_mshr_reserve=6
do_fast_writeline=false
eventq_index=0
force_hit=false
is_read_only=false
max_miss_count=0
move_contractions=true
mshr_alloc_per_cycle=1
mshrs=16
num_slices=-1
power_model=
power_state=system.cpu.dcache.power_state
prefetcher=Null
replace_expansions=true
replacement_policy=system.cpu.dcache.replacement_policy
response_latency=0
sequential_access=false
size=65536
system=system
tag_latency=1
tag_load_read_ports=3
tags=system.cpu.dcache.tags
tgts_per_mshr=20
warmup_percentage=0
way_entries=64
way_indexing_policy=system.cpu.dcache.way_indexing_policy
way_replacement_policy=system.cpu.dcache.way_replacement_policy
wpu=system.cpu.dcache.wpu
write_allocator=Null
write_buffers=8
writeback_clean=false
cpu_side=system.cpu.dcache_port
mem_side=system.tol2bus_list.cpu_side_ports[1]

[system.cpu.dcache.power_state]
type=PowerState
clk_gate_bins=20
clk_gate_max=1000000000000
clk_gate_min=1000
default_state=UNDEFINED
eventq_index=0
leaders=
possible_states=

[system.cpu.dcache.replacement_policy]
type=TreePLRURP
eventq_index=0
num_leaves=4

[system.cpu.dcache.tags]
type=VIPTSetAssoc
children=indexing_policy power_state
assoc=4
block_size=64
clk_domain=system.cpu_clk_domain
entry_size=64
eventq_index=0
indexing_policy=system.cpu.dcache.tags.indexing_policy
page_size=4096
power_model=
power_state=system.cpu.dcache.tags.power_state
replacement_policy=system.cpu.dcache.replacement_policy
sequential_access=false
size=65536
system=system
tag_latency=1
warmup_percentage=0

[system.cpu.dcache.tags.indexing_policy]
type=VIPTSetAssociative
assoc=4
entry_size=64
eventq_index=0
num_slices=0
page_size=4096
size=65536
slice_idx=0

[system.cpu.dcache.tags.power_state]
type=PowerState
clk_gate_bins=20
clk_gate_max=1000000000000
clk_gate_min=1000
default_state=UNDEFINED
eventq_index=0
leaders=
possible_states=

[system.cpu.dcache.way_indexing_policy]
type=SetAssociative
assoc=64
entry_size=1
eventq_index=0
num_slices=0
size=64
slice_idx=0

[system.cpu.dcache.way_replacement_policy]
type=LRURP
eventq_index=0

[system.cpu.dcache.wpu]
type=MMRUWpu
assoc=4
blk_size=64
cycle_reduction=0
eventq_index=0
max_addr_bits=48
miss_train=false
n_tags=4
size=65536
use_virtual=true

[system.cpu.decoder]
type=RiscvDecoder
eventq_index=0
isa=system.cpu.isa

[system.cpu.dtb_walker_cache]
type=Cache
children=power_state replacement_policy tags way_indexing_policy way_replacement_policy
addr_ranges=0:18446744073709551615
arch_db=Null
assoc=2
cache_level=0
clk_domain=system.cpu_clk_domain
clusivity=mostly_incl
compressor=Null
data_latency=2
demand_mshr_reserve=1
do_fast_writeline=true
eventq_index=0
force_hit=false
is_read_only=false
max_miss_count=0
move_contractions=true
mshr_alloc_per_cycle=-1
mshrs=10
num_slices=-1
power_model=
power_state=system.cpu.dtb_walker_cache.power_state
prefetcher=Null
replace_expansions=true
replacement_policy=system.cpu.dtb_walker_cache.replacement_policy
response_latency=2
sequential_access=false
size=1024
system=system
tag_latency=2
tag_load_read_ports=3
tags=system.cpu.dtb_walker_cache.tags
tgts_per_mshr=12
warmup_percentage=0
way_entries=64
way_indexing_policy=system.cpu.dtb_walker_cache.way_indexing_policy
way_replacement_policy=system.cpu.dtb_walker_cache.way_replacement_policy
wpu=Null
write_allocator=Null
write_buffers=8
writeback_clean=true
cpu_side=system.cpu.mmu.dtb.walker.port
mem_side=system.tol2bus_list.cpu_side_ports[3]

[system.cpu.dtb_walker_cache.power_state]
type=PowerState
clk_gate_bins=20
clk_gate_max=1000000000000
clk_gate_min=1000
default_state=UNDEFINED
eventq_index=0
leaders=
possible_states=

[system.cpu.dtb_walker_cache.replacement_policy]
type=LRURP
eventq_index=0

[system.cpu.dtb_walker_cache.tags]
type=BaseSetAssoc
children=indexing_policy power_state
assoc=2
block_size=64
clk_domain=system.cpu_clk_domain
entry_size=64
eventq_index=0
indexing_policy=system.cpu.dtb_walker_cache.tags.indexing_policy
power_model=
power_state=system.cpu.dtb_walker_cache.tags.power_state
replacement_policy=system.cpu.dtb_walker_cache.replacement_policy
sequential_access=false
size=1024
system=system
tag_latency=2
warmup_percentage=0

[system.cpu.dtb_walker_cache.tags.indexing_policy]
type=SetAssociative
assoc=2
entry_size=64
eventq_index=0
num_slices=0
size=1024
slice_idx=0

[system.cpu.dtb_walker_cache.tags.power_state]
type=PowerState
clk_gate_bins=20
clk_gate_max=1000000000000
clk_gate_min=1000
default_state=UNDEFINED
eventq_index=0
leaders=
possible_states=

[system.cpu.dtb_walker_cache.way_indexing_policy]
type=SetAssociative
assoc=64
entry_size=1
eventq_index=0
num_slices=0
size=64
slice_idx=0

[system.cpu.dtb_walker_cache.way_replacement_policy]
type=LRURP
eventq_index=0

[system.cpu.icache]
type=Cache
children=power_state replacement_policy tags way_indexing_policy way_replacement_policy
addr_ranges=0:18446744073709551615
arch_db=Null
assoc=4
cache_level=1
clk_domain=system.cpu_clk_domain
clusivity=mostly_incl
compressor=Null
data_latency=1
demand_mshr_reserve=1
do_fast_writeline=true
eventq_index=0
force_hit=false
is_read_only=true
max_miss_count=0
move_contractions=true
mshr_alloc_per_cycle=-1
mshrs=4
num_slices=-1
power_model=
power_state=system.cpu.icache.power_state
prefetcher=Null
replace_expansions=true
replacement_policy=system.cpu.icache.replacement_policy
response_latency=0
sequential_access=false
size=65536
system=system
tag_latency=1
tag_load_read_ports=3
tags=system.cpu.icache.tags
tgts_per_mshr=20
warmup_percentage=0
way_entries=64
way_indexing_policy=system.cpu.icache.way_indexing_policy
way_replacement_policy=system.cpu.icache.way_replacement_policy
wpu=Null
write_allocator=Null
write_buffers=8
writeback_clean=false
cpu_side=system.cpu.icache_port
mem_side=system.tol2bus_list.cpu_side_ports[0]

[system.cpu.icache.power_state]
type=PowerState
clk_gate_bins=20
clk_gate_max=1000000000000
clk_gate_min=1000
default_state=UNDEFINED
eventq_index=0
leaders=
possible_states=

[system.cpu.icache.replacement_policy]
type=LRURP
eventq_index=0

[system.cpu.icache.tags]
type=BaseSetAssoc
children=indexing_policy power_state
assoc=4
block_size=64
clk_domain=system.cpu_clk_domain
entry_size=64
eventq_index=0
indexing_policy=system.cpu.icache.tags.indexing_policy
power_model=
power_state=system.cpu.icache.tags.power_state
replacement_policy=system.cpu.icache.replacement_policy
sequential_access=false
size=65536
system=system
tag_latency=1
warmup_percentage=0

[system.cpu.icache.tags.indexing_policy]
type=SetAssociative
assoc=4
entry_size=64
eventq_index=0
num_slices=0
size=65536
slice_idx=0

[system.cpu.icache.tags.power_state]
type=PowerState
clk_gate_bins=20
clk_gate_max=1000000000000
clk_gate_min=1000
default_state=UNDEFINED
eventq_index=0
leaders=
possible_states=

[system.cpu.icache.way_indexing_policy]
type=SetAssociative
assoc=64
entry_size=1
eventq_index=0
num_slices=0
size=64
slice_idx=0

[system.cpu.icache.way_replacement_policy]
type=LRURP
eventq_index=0

[system.cpu.interrupts]
type=RiscvInterrupts
eventq_index=0

[system.cpu.isa]
type=RiscvISA
eventq_index=0

[system.cpu.itb_walker_cache]
type=Cache
children=power_state replacement_policy tags way_indexing_policy way_replacement_policy
addr_ranges=0:18446744073709551615
arch_db=Null
assoc=2
cache_level=0
clk_domain=system.cpu_clk_domain
clusivity=mostly_incl
compressor=Null
data_latency=2
demand_mshr_reserve=1
do_fast_writeline=true
eventq_index=0
force_hit=false
is_read_only=false
max_miss_count=0
move_contractions=true
mshr_alloc_per_cycle=-1
mshrs=10
num_slices=-1
power_model=
power_state=system.cpu.itb_walker_cache.power_state
prefetcher=Null
replace_expansions=true
replacement_policy=system.cpu.itb_walker_cache.replacement_policy
response_latency=2
sequential_access=false
size=1024
system=system
tag_latency=2
tag_load_read_ports=3
tags=system.cpu.itb_walker_cache.tags
tgts_per_mshr=12
warmup_percentage=0
way_entries=64
way_indexing_policy=system.cpu.itb_walker_cache.way_indexing_policy
way_replacement_policy=system.cpu.itb_walker_cache.way_replacement_policy
wpu=Null
write_allocator=Null
write_buffers=8
writeback_clean=true
cpu_side=system.cpu.mmu.itb.walker.port
mem_side=system.tol2bus_list.cpu_side_ports[2]

[system.cpu.itb_walker_cache.power_state]
type=PowerState
clk_gate_bins=20
clk_gate_max=1000000000000
clk_gate_min=1000
default_state=UNDEFINED
eventq_index=0
leaders=
possible_states=

[system.cpu.itb_walker_cache.replacement_policy]
type=LRURP
eventq_index=0

[system.cpu.itb_walker_cache.tags]
type=BaseSetAssoc
children=indexing_policy power_state
assoc=2
block_size=64
clk_domain=system.cpu_clk_domain
entry_size=64
eventq_index=0
indexing_policy=system.cpu.itb_walker_cache.tags.indexing_policy
power_model=
power_state=system.cpu.itb_walker_cache.tags.power_state
replacement_policy=system.cpu.itb_walker_cache.replacement_policy
sequential_access=false
size=1024
system=system
tag_latency=2
warmup_percentage=0

[system.cpu.itb_walker_cache.tags.indexing_policy]
type=SetAssociative
assoc=2
entry_size=64
eventq_index=0
num_slices=0
size=1024
slice_idx=0

[system.cpu.itb_walker_cache.tags.power_state]
type=PowerState
clk_gate_bins=20
clk_gate_max=1000000000000
clk_gate_min=1000
default_state=UNDEFINED
eventq_index=0
leaders=
possible_states=

[system.cpu.itb_walker_cache.way_indexing_policy]
type=SetAssociative
assoc=64
entry_size=1
eventq_index=0
num_slices=0
size=64
slice_idx=0

[system.cpu.itb_walker_cache.way_replacement_policy]
type=LRURP
eventq_index=0

[system.cpu.mmu]
type=RiscvMMU
children=dtb itb l2_shared pma_checker pmp
dtb=system.cpu.mmu.dtb
enable_sv48=false
eventq_index=0
functional=false
itb=system.cpu.mmu.itb
pma_checker=system.cpu.mmu.pma_checker
pmp=system.cpu.mmu.pmp

[system.cpu.mmu.dtb]
type=RiscvTLB
children=walker
arch_db=Null
entry_type=data
eventq_index=0
forward_pre_size=32
initial_back_pre_precision_value=false
initial_forward_pre_precision_value=false
is_L1tlb=true
is_dtlb=true
is_open_nextline=true
is_stage2=false
is_the_sharedL2=false
l2tlb_l0_size=128
l2tlb_l1_size=16
l2tlb_l2_size=16
l2tlb_l3_size=16
l2tlb_line_size=8
l2tlb_sp_size=16
next_level=system.cpu.mmu.l2_shared
open_back_pre=false
open_forward_pre=false
pma_checker=system.cpu.mmu.pma_checker
pmp=system.cpu.mmu.pmp
regulation_num=70000
size=48
walker=system.cpu.mmu.dtb.walker

[system.cpu.mmu.dtb.walker]
type=RiscvPagetableWalker
children=power_state
clk_domain=system.cpu_clk_domain
enable_l1l2_replace=true
eventq_index=0
num_squash_per_cycle=4
open_nextline=true
pma_checker=system.cpu.mmu.pma_checker
pmp=system.cpu.mmu.pmp
power_model=
power_state=system.cpu.mmu.dtb.walker.power_state
ptw_squash=false
system=system
port=system.cpu.dtb_walker_cache.cpu_side

[system.cpu.mmu.dtb.walker.power_state]
type=PowerState
clk_gate_bins=20
clk_gate_max=1000000000000
clk_gate_min=1000
default_state=UNDEFINED
eventq_index=0
leaders=
possible_states=

[system.cpu.mmu.itb]
type=RiscvTLB
children=walker
arch_db=Null
entry_type=instruction
eventq_index=0
forward_pre_size=32
initial_back_pre_precision_value=false
initial_forward_pre_precision_value=false
is_L1tlb=true
is_dtlb=false
is_open_nextline=true
is_stage2=false
is_the_sharedL2=false
l2tlb_l0_size=128
l2tlb_l1_size=16
l2tlb_l2_size=16
l2tlb_l3_size=16
l2tlb_line_size=8
l2tlb_sp_size=16
next_level=system.cpu.mmu.l2_shared
open_back_pre=false
open_forward_pre=false
pma_checker=system.cpu.mmu.pma_checker
pmp=system.cpu.mmu.pmp
regulation_num=70000
size=96
walker=system.cpu.mmu.itb.walker

[system.cpu.mmu.itb.walker]
type=RiscvPagetableWalker
children=power_state
clk_domain=system.cpu_clk_domain
enable_l1l2_replace=true
eventq_index=0
num_squash_per_cycle=4
open_nextline=true
pma_checker=system.cpu.mmu.pma_checker
pmp=system.cpu.mmu.pmp
power_model=
power_state=system.cpu.mmu.itb.walker.power_state
ptw_squash=false
system=system
port=system.cpu.itb_walker_cache.cpu_side

[system.cpu.mmu.itb.walker.power_state]
type=PowerState
clk_gate_bins=20
clk_gate_max=1000000000000
clk_gate_min=1000
default_state=UNDEFINED
eventq_index=0
leaders=
possible_states=

[system.cpu.mmu.l2_shared]
type=RiscvTLB
children=walker
arch_db=Null
entry_type=unified
eventq_index=0
forward_pre_size=32
initial_back_pre_precision_value=false
initial_forward_pre_precision_value=false
is_L1tlb=false
is_dtlb=false
is_open_nextline=true
is_stage2=false
is_the_sharedL2=true
l2tlb_l0_size=128
l2tlb_l1_size=16
l2tlb_l2_size=16
l2tlb_l3_size=16
l2tlb_line_size=8
l2tlb_sp_size=16
next_level=Null
open_back_pre=false
open_forward_pre=false
pma_checker=system.cpu.mmu.pma_checker
pmp=system.cpu.mmu.pmp
regulation_num=70000
size=48
walker=system.cpu.mmu.l2_shared.walker

[system.cpu.mmu.l2_shared.walker]
type=RiscvPagetableWalker
children=power_state
clk_domain=system.cpu_clk_domain
enable_l1l2_replace=true
eventq_index=0
num_squash_per_cycle=4
open_nextline=true
pma_checker=system.cpu.mmu.pma_checker
pmp=system.cpu.mmu.pmp
power_model=
power_state=system.cpu.mmu.l2_shared.walker.power_state
ptw_squash=false
system=system

[system.cpu.mmu.l2_shared.walker.power_state]
type=PowerState
clk_gate_bins=20
clk_gate_max=1000000000000
clk_gate_min=1000
default_state=UNDEFINED
eventq_index=0
leaders=
possible_states=

[system.cpu.mmu.pma_checker]
type=PMAChecker
eventq_index=0
uncacheable=0:2147483648

[system.cpu.mmu.pmp]
type=PMP
eventq_index=0
pmp_entries=16

[system.cpu.power_state]
type=PowerState
clk_gate_bins=20
clk_gate_max=1000000000000
clk_gate_min=1000
default_state=UNDEFINED
eventq_index=0
leaders=
possible_states=ON CLK_GATED OFF

[system.cpu.scheduler]
type=Scheduler
children=IQs00 IQs01 IQs02 IQs03 IQs04 IQs05 IQs06 IQs07 IQs08 IQs09 IQs10 IQs11 IQs12 IQs13 IQs14 IQs15 IQs16 IQs17 specWakeupNetwork0 specWakeupNetwork1 specWakeupNetwork2
IQs=system.cpu.scheduler.IQs00 system.cpu.scheduler.IQs01 system.cpu.scheduler.IQs02 system.cpu.scheduler.IQs03 system.cpu.scheduler.IQs04 system.cpu.scheduler.IQs05 system.cpu.scheduler.IQs06 system.cpu.scheduler.IQs07 system.cpu.scheduler.IQs08 system.cpu.scheduler.IQs09 system.cpu.scheduler.IQs10 system.cpu.scheduler.IQs11 system.cpu.scheduler.IQs12 system.cpu.scheduler.IQs13 system.cpu.scheduler.IQs14 system.cpu.scheduler.IQs15 system.cpu.scheduler.IQs16 system.cpu.scheduler.IQs17
enableMainRdpOpt=false
eventq_index=0
intRegfileBanks=1
specWakeupNetwork=system.cpu.scheduler.specWakeupNetwork0 system.cpu.scheduler.specWakeupNetwork1 system.cpu.scheduler.specWakeupNetwork2
useOldDisp=false
xbarWakeup=false

[system.cpu.scheduler.IQs00]
type=IssueQue
children=oports0 oports1 sel
eventq_index=0
inports=2
name=intIQ0
oports=system.cpu.scheduler.IQs00.oports0 system.cpu.scheduler.IQs00.oports1
scheduleToExecDelay=2
sel=system.cpu.scheduler.IQs00.sel
size=16

[system.cpu.scheduler.IQs00.oports0]
type=IssuePort
children=fu
eventq_index=0
fu=system.cpu.scheduler.IQs00.oports0.fu
rp=0 4

[system.cpu.scheduler.IQs00.oports0.fu]
type=FUDesc
children=opList
count=0
eventq_index=0
opList=system.cpu.scheduler.IQs00.oports0.fu.opList

[system.cpu.scheduler.IQs00.oports0.fu.opList]
type=OpDesc
eventq_index=0
opClass=IntAlu
opLat=1
pipelined=true

[system.cpu.scheduler.IQs00.oports1]
type=IssuePort
children=fu
eventq_index=0
fu=system.cpu.scheduler.IQs00.oports1.fu
rp=1 5

[system.cpu.scheduler.IQs00.oports1.fu]
type=FUDesc
children=opList0 opList1
count=0
eventq_index=0
opList=system.cpu.scheduler.IQs00.oports1.fu.opList0 system.cpu.scheduler.IQs00.oports1.fu.opList1

[system.cpu.scheduler.IQs00.oports1.fu.opList0]
type=OpDesc
eventq_index=0
opClass=IntBr
opLat=1
pipelined=true

[system.cpu.scheduler.IQs00.oports1.fu.opList1]
type=OpDesc
eventq_index=0
opClass=IntJp
opLat=1
pipelined=true

[system.cpu.scheduler.IQs00.sel]
type=BaseSelector
eventq_index=0

[system.cpu.scheduler.IQs01]
type=IssueQue
children=oports0 oports1 sel
eventq_index=0
inports=2
name=intIQ1
oports=system.cpu.scheduler.IQs01.oports0 system.cpu.scheduler.IQs01.oports1
scheduleToExecDelay=2
sel=system.cpu.scheduler.IQs01.sel
size=16

[system.cpu.scheduler.IQs01.oports0]
type=IssuePort
children=fu
eventq_index=0
fu=system.cpu.scheduler.IQs01.oports0.fu
rp=8 12

[system.cpu.scheduler.IQs01.oports0.fu]
type=FUDesc
children=opList
count=0
eventq_index=0
opList=system.cpu.scheduler.IQs01.oports0.fu.opList

[system.cpu.scheduler.IQs01.oports0.fu.opList]
type=OpDesc
eventq_index=0
opClass=IntAlu
opLat=1
pipelined=true

[system.cpu.scheduler.IQs01.oports1]
type=IssuePort
children=fu
eventq_index=0
fu=system.cpu.scheduler.IQs01.oports1.fu
rp=9 13

[system.cpu.scheduler.IQs01.oports1.fu]
type=FUDesc
children=opList
count=0
eventq_index=0
opList=system.cpu.scheduler.IQs01.oports1.fu.opList

[system.cpu.scheduler.IQs01.oports1.fu.opList]
type=OpDesc
eventq_index=0
opClass=IntBr
opLat=1
pipelined=true

[system.cpu.scheduler.IQs01.sel]
type=BaseSelector
eventq_index=0

[system.cpu.scheduler.IQs02]
type=IssueQue
children=oports0 oports1 sel
eventq_index=0
inports=2
name=intIQ2
oports=system.cpu.scheduler.IQs02.oports0 system.cpu.scheduler.IQs02.oports1
scheduleToExecDelay=2
sel=system.cpu.scheduler.IQs02.sel
size=16

[system.cpu.scheduler.IQs02.oports0]
type=IssuePort
children=fu0 fu1
eventq_index=0
fu=system.cpu.scheduler.IQs02.oports0.fu0 system.cpu.scheduler.IQs02.oports0.fu1
rp=16 20

[system.cpu.scheduler.IQs02.oports0.fu0]
type=FUDesc
children=opList
count=0
eventq_index=0
opList=system.cpu.scheduler.IQs02.oports0.fu0.opList

[system.cpu.scheduler.IQs02.oports0.fu0.opList]
type=OpDesc
eventq_index=0
opClass=IntAlu
opLat=1
pipelined=true

[system.cpu.scheduler.IQs02.oports0.fu1]
type=FUDesc
children=opList
count=0
eventq_index=0
opList=system.cpu.scheduler.IQs02.oports0.fu1.opList

[system.cpu.scheduler.IQs02.oports0.fu1.opList]
type=OpDesc
eventq_index=0
opClass=Int2Fp
opLat=4
pipelined=true

[system.cpu.scheduler.IQs02.oports1]
type=IssuePort
children=fu
eventq_index=0
fu=system.cpu.scheduler.IQs02.oports1.fu
rp=17 21

[system.cpu.scheduler.IQs02.oports1.fu]
type=FUDesc
children=opList
count=0
eventq_index=0
opList=system.cpu.scheduler.IQs02.oports1.fu.opList

[system.cpu.scheduler.IQs02.oports1.fu.opList]
type=OpDesc
eventq_index=0
opClass=IntBr
opLat=1
pipelined=true

[system.cpu.scheduler.IQs02.sel]
type=BaseSelector
eventq_index=0

[system.cpu.scheduler.IQs03]
type=IssueQue
children=oports sel
eventq_index=0
inports=2
name=intIQ3
oports=system.cpu.scheduler.IQs03.oports
scheduleToExecDelay=2
sel=system.cpu.scheduler.IQs03.sel
size=16

[system.cpu.scheduler.IQs03.oports]
type=IssuePort
children=fu0 fu1
eventq_index=0
fu=system.cpu.scheduler.IQs03.oports.fu0 system.cpu.scheduler.IQs03.oports.fu1
rp=

[system.cpu.scheduler.IQs03.oports.fu0]
type=FUDesc
children=opList
count=0
eventq_index=0
opList=system.cpu.scheduler.IQs03.oports.fu0.opList

[system.cpu.scheduler.IQs03.oports.fu0.opList]
type=OpDesc
eventq_index=0
opClass=IntAlu
opLat=1
pipelined=true

[system.cpu.scheduler.IQs03.oports.fu1]
type=FUDesc
children=opList
count=0
eventq_index=0
opList=system.cpu.scheduler.IQs03.oports.fu1.opList

[system.cpu.scheduler.IQs03.oports.fu1.opList]
type=OpDesc
eventq_index=0
opClass=IntMult
opLat=3
pipelined=true

[system.cpu.scheduler.IQs03.sel]
type=BaseSelector
eventq_index=0

[system.cpu.scheduler.IQs04]
type=IssueQue
children=oports sel
eventq_index=0
inports=2
name=intIQ4
oports=system.cpu.scheduler.IQs04.oports
scheduleToExecDelay=2
sel=system.cpu.scheduler.IQs04.sel
size=16

[system.cpu.scheduler.IQs04.oports]
type=IssuePort
children=fu0 fu1
eventq_index=0
fu=system.cpu.scheduler.IQs04.oports.fu0 system.cpu.scheduler.IQs04.oports.fu1
rp=

[system.cpu.scheduler.IQs04.oports.fu0]
type=FUDesc
children=opList
count=0
eventq_index=0
opList=system.cpu.scheduler.IQs04.oports.fu0.opList

[system.cpu.scheduler.IQs04.oports.fu0.opList]
type=OpDesc
eventq_index=0
opClass=IntAlu
opLat=1
pipelined=true

[system.cpu.scheduler.IQs04.oports.fu1]
type=FUDesc
children=opList
count=0
eventq_index=0
opList=system.cpu.scheduler.IQs04.oports.fu1.opList

[system.cpu.scheduler.IQs04.oports.fu1.opList]
type=OpDesc
eventq_index=0
opClass=IntMult
opLat=3
pipelined=true

[system.cpu.scheduler.IQs04.sel]
type=BaseSelector
eventq_index=0

[system.cpu.scheduler.IQs05]
type=IssueQue
children=oports sel
eventq_index=0
inports=2
name=intIQ5
oports=system.cpu.scheduler.IQs05.oports
scheduleToExecDelay=2
sel=system.cpu.scheduler.IQs05.sel
size=16

[system.cpu.scheduler.IQs05.oports]
type=IssuePort
children=fu0 fu1 fu2
eventq_index=0
fu=system.cpu.scheduler.IQs05.oports.fu0 system.cpu.scheduler.IQs05.oports.fu1 system.cpu.scheduler.IQs05.oports.fu2
rp=

[system.cpu.scheduler.IQs05.oports.fu0]
type=FUDesc
children=opList
count=0
eventq_index=0
opList=system.cpu.scheduler.IQs05.oports.fu0.opList

[system.cpu.scheduler.IQs05.oports.fu0.opList]
type=OpDesc
eventq_index=0
opClass=IntAlu
opLat=1
pipelined=true

[system.cpu.scheduler.IQs05.oports.fu1]
type=FUDesc
children=opList
count=0
eventq_index=0
opList=system.cpu.scheduler.IQs05.oports.fu1.opList

[system.cpu.scheduler.IQs05.oports.fu1.opList]
type=OpDesc
eventq_index=0
opClass=IntDiv